*----------------------------------------------------------------------
* SPICE Model generated by Murata Manufacturing Co., Ltd.
* Copyright(C) Murata Manufacturing Co., Ltd.
* Description :1608M(0603)/X7R/0.18uF/16V
* Murata P/N :GCJ188R71C184KA01
* Property : C = 0.18[uF]
* Data Generated on Nov 6, 2018
*----------------------------------------------------------------------
* Applicable Conditions:
*   Frequency Range = 100Hz-6GHz
*   Temperature = 25 degC
*   DC Bias Voltage = 0V
*   Small Signal Operation
*----------------------------------------------------------------------
.SUBCKT GCJ188R71C184KA01_DC0V_25degC port1 port2
C1 port1 11 1.68e-7
L2 11 12 2.21e-10
R3 12 13 2.32e-2
C4 13 14 2.03e-5
R4 13 14 108
C5 14 15 2.76e-5
R5 14 15 8.40
C6 15 16 2.57e-5
R6 15 16 1.16
C7 16 17 2.06e-5
R7 16 17 2.01e-1
C8 17 18 1.08e-5
R8 17 18 3.58e-2
L9 18 19 1.15e-11
R9 18 19 8.91e-2
L10 19 20 1.08e-10
R10 19 20 7.57e-2
C11 20 21 4.41e-7
L11 20 21 4.74e-11
R11 20 21 1.48e-2
C12 21 22 1.92e-7
L12 21 22 4.39e-11
R12 21 22 2.18e-2
C13 22 port2 3.30e-12
L13 22 port2 1.59e-10
R13 22 port2 24.4
R100 port1 11 2.78e+9
.ENDS GCJ188R71C184KA01_DC0V_25degC